Version 4
SHEET 1 1012 680
WIRE 208 -112 160 -112
WIRE 160 -64 160 -112
WIRE 208 -64 208 -112
WIRE 352 0 288 0
WIRE 352 32 352 0
WIRE 160 48 160 16
WIRE 192 48 160 48
WIRE 288 48 288 0
WIRE 288 48 272 48
WIRE -32 96 -192 96
WIRE 288 144 288 48
WIRE 288 144 256 144
WIRE 352 144 352 112
WIRE 352 144 320 144
WIRE 160 160 160 48
WIRE 192 160 160 160
WIRE 352 160 352 144
WIRE 320 176 320 144
WIRE 320 176 256 176
WIRE 144 192 0 192
WIRE 192 192 144 192
WIRE -192 208 -192 96
WIRE 336 208 256 208
WIRE 416 208 336 208
WIRE 528 208 496 208
WIRE 576 208 528 208
WIRE -32 224 -32 96
WIRE 0 224 0 192
WIRE 528 240 528 208
WIRE 144 304 144 192
WIRE 192 304 144 304
WIRE 336 304 336 208
WIRE 336 304 272 304
WIRE -192 320 -192 288
WIRE 528 352 528 304
WIRE -16 368 -16 288
WIRE 144 400 144 304
WIRE 208 400 144 400
WIRE 336 400 336 304
WIRE 336 400 272 400
WIRE -192 432 -192 400
FLAG -16 368 0
FLAG 352 160 0
FLAG 208 -64 0
FLAG 528 352 0
FLAG -192 432 0
SYMBOL AutoGenerated\\BPW34 -16 256 M270
SYMATTR InstName U2
SYMBOL res 288 288 R90
WINDOW 0 0 56 VBottom 2
WINDOW 3 32 56 VTop 2
SYMATTR InstName R1
SYMATTR Value 1Meg
SYMBOL cap 272 384 R90
WINDOW 0 0 32 VBottom 2
WINDOW 3 32 32 VTop 2
SYMATTR InstName C1
SYMATTR Value 500p
SYMBOL voltage 352 16 R0
WINDOW 123 0 0 Left 0
WINDOW 39 0 0 Left 0
SYMATTR InstName V2
SYMATTR Value 3.3
SYMBOL res 176 32 R180
WINDOW 0 36 76 Left 2
WINDOW 3 36 40 Left 2
SYMATTR InstName R3
SYMATTR Value 1k
SYMBOL voltage -192 192 R0
WINDOW 3 -51 -184 VRight 2
WINDOW 123 0 0 Left 0
WINDOW 39 0 0 Left 0
SYMATTR Value PULSE(0 3u 0 10n 10n 4m 8m)
SYMATTR InstName V1
SYMBOL res 288 32 R90
WINDOW 0 0 56 VBottom 2
WINDOW 3 32 56 VTop 2
SYMATTR InstName R2
SYMATTR Value 30k
SYMBOL res 512 192 R90
WINDOW 0 0 56 VBottom 2
WINDOW 3 32 56 VTop 2
SYMATTR InstName R4
SYMATTR Value 1k
SYMBOL cap 512 240 R0
SYMATTR InstName C2
SYMATTR Value 100n
SYMBOL AutoGenerated\\LMV601 224 176 R0
SYMATTR InstName U3
SYMBOL voltage -192 304 R0
WINDOW 123 0 0 Left 0
WINDOW 39 0 0 Left 0
SYMATTR InstName V3
SYMATTR Value 100n
TEXT -400 -24 Left 2 !.tran 1
